LTspice 24.0.12 for Windows
Circuit: * C:\Users\Nick\Documents\GitHub\Micro-DMM\LTSpice\Draft2.asc
Start Time: Sun Jul 27 19:51:12 2025
solver = Normal
Maximum thread count: 16
tnom = 27
temp = 27
method = modified trap
Direct Newton iteration for .op point succeeded.
Total elapsed time: 0.091 seconds.

