LTspice 24.0.12 for Windows
Circuit: * C:\Users\Nick\Documents\GitHub\Micro-DMM\LTSpice\LTSpiceModelling.asc
Start Time: Sun Jun 22 17:33:02 2025
Warning: Multiple definitions of model "2scr375p" Type: BJT
Warning: Multiple definitions of model "bc857b" Type: BJT
Warning: Multiple definitions of model "bc847c" Type: BJT
Warning: Multiple definitions of model "bc847b" Type: BJT
solver = Normal
Maximum thread count: 16
tnom = 27
temp = 27
method = modified trap
Direct Newton iteration for .op point succeeded.
Total elapsed time: 0.190 seconds.

