LTspice 24.0.12 for Windows
Circuit: * C:\Users\Nick\Documents\GitHub\Micro-DMM\LTSpice\Voltmeter W Continuity.asc
Start Time: Mon Jul 21 15:46:23 2025
solver = Normal
Maximum thread count: 16
tnom = 27
temp = 27
method = modified trap
Limiting rise time of source v3 to 0.05
Limiting fall time of source v3 to 0.05
WARNING: Node N004 is floating.
WARNING: Node N001 is floating.
WARNING: Node NC_03 is floating.

WARNING: Less than two connections to node n005.  This node is used by r6.
WARNING: Less than two connections to node n004.  This node is used by r6.
WARNING: Less than two connections to node n003.  This node is used by r10.
WARNING: Less than two connections to node n001.  This node is used by v4.
WARNING: Less than two connections to node nc_01.  This node is used by r11.
WARNING: Less than two connections to node nc_02.  This node is used by d3.
WARNING: Less than two connections to node nc_03.  This node is used by d3.
Direct Newton iteration for .op point succeeded.
Total elapsed time: 0.120 seconds.

